 INFO
nunit      1    1    1
unit   cell
celltype   primcell
shape   parapipedal
 END_INFO
 DIM-GROUP
           3           1
 PRIMVEC
   10.7232000000    0.0000000000    0.0000000000
    0.0000000000   11.5744000000    0.0000000000
   -4.8409211990    0.0000000000    5.6840373400
 CONVVEC
   10.7232000000    0.0000000000    0.0000000000
    0.0000000000   11.5744000000    0.0000000000
   -4.8409211990    0.0000000000    5.6840373400
 PRIMCOORD
          12           1
  8      8.5942140000     7.5313380000     1.1540840000
  8      9.2081720000     5.4941250000     1.4883040000
  7      8.3604780000     6.3215780000     1.1427160000
  6     -0.2542040000     4.9408870000     5.5984210000
  6      0.0073740000     6.3286380000     5.6234310000
  6      6.0986700000     6.7696440000     0.3412690000
  1      6.2912500000     7.7004590000     0.3563880000
  6      7.0755310000     5.8483210000     0.7238030000
  6      6.8389600000     4.4779100000     0.6908360000
  1      7.5192430000     3.8635400000     0.9378640000
  6      5.5979770000     4.0299800000     0.2918180000
  1      5.4211900000     3.0973140000     0.2699910000
 CONVCOORD
          12           1
  8      8.5942140000     7.5313380000     1.1540840000
  8      9.2081720000     5.4941250000     1.4883040000
  7      8.3604780000     6.3215780000     1.1427160000
  6     -0.2542040000     4.9408870000     5.5984210000
  6      0.0073740000     6.3286380000     5.6234310000
  6      6.0986700000     6.7696440000     0.3412690000
  1      6.2912500000     7.7004590000     0.3563880000
  6      7.0755310000     5.8483210000     0.7238030000
  6      6.8389600000     4.4779100000     0.6908360000
  1      7.5192430000     3.8635400000     0.9378640000
  6      5.5979770000     4.0299800000     0.2918180000
  1      5.4211900000     3.0973140000     0.2699910000
 RECIP-PRIMVEC
    0.0932557446   -0.0000000000    0.0794230727

    0.0000000000    0.0863975670   -0.0000000000

    0.0000000000    0.0000000000    0.1759312862

 RECIP-CONVVEC
    0.0932557446   -0.0000000000    0.0794230727

    0.0000000000    0.0863975670   -0.0000000000

    0.0000000000    0.0000000000    0.1759312862

 WIGNER-SEITZ-PRIMCELL
           4
 -0.5361600E+01  0.5787200E+01 -0.3371400E+00  -0.7191207E+00 -0.3848981E-16 -0.6948852E+00
 -0.5206788E+00  0.5787200E+01 -0.5346897E+01  -0.7191207E+00 -0.3848981E-16 -0.6948852E+00
 -0.5206788E+00 -0.5787200E+01 -0.5346897E+01  -0.7191207E+00 -0.3848981E-16 -0.6948852E+00
 -0.5361600E+01 -0.5787200E+01 -0.3371400E+00  -0.7191207E+00 -0.3848981E-16 -0.6948852E+00
           4
 -0.5361600E+01  0.5787200E+01  0.3371400E+00  -0.1000000E+01 -0.0000000E+00 -0.0000000E+00
 -0.5361600E+01  0.5787200E+01 -0.3371400E+00  -0.1000000E+01 -0.0000000E+00 -0.0000000E+00
 -0.5361600E+01 -0.5787200E+01 -0.3371400E+00  -0.1000000E+01 -0.0000000E+00 -0.0000000E+00
 -0.5361600E+01 -0.5787200E+01  0.3371400E+00  -0.1000000E+01 -0.0000000E+00 -0.0000000E+00
           6
  0.5361600E+01 -0.5787200E+01  0.3371400E+00  -0.1101338E-31 -0.1000000E+01 -0.2645325E-15
  0.5206788E+00 -0.5787200E+01  0.5346897E+01  -0.1101338E-31 -0.1000000E+01 -0.2645325E-15
 -0.5361600E+01 -0.5787200E+01  0.3371400E+00  -0.1101338E-31 -0.1000000E+01 -0.2645325E-15
 -0.5361600E+01 -0.5787200E+01 -0.3371400E+00  -0.1101338E-31 -0.1000000E+01 -0.2645325E-15
 -0.5206788E+00 -0.5787200E+01 -0.5346897E+01  -0.1101338E-31 -0.1000000E+01 -0.2645325E-15
  0.5361600E+01 -0.5787200E+01 -0.3371400E+00  -0.1101338E-31 -0.1000000E+01 -0.2645325E-15
           4
  0.5361600E+01  0.5787200E+01 -0.3371400E+00   0.6483860E+00  0.0000000E+00 -0.7613118E+00
  0.5361600E+01 -0.5787200E+01 -0.3371400E+00   0.6483860E+00  0.0000000E+00 -0.7613118E+00
 -0.5206788E+00 -0.5787200E+01 -0.5346897E+01   0.6483860E+00  0.0000000E+00 -0.7613118E+00
 -0.5206788E+00  0.5787200E+01 -0.5346897E+01   0.6483860E+00  0.0000000E+00 -0.7613118E+00
           4
  0.5206788E+00  0.5787200E+01  0.5346897E+01  -0.6483860E+00  0.1337683E-16  0.7613118E+00
 -0.5361600E+01  0.5787200E+01  0.3371400E+00  -0.6483860E+00  0.1337683E-16  0.7613118E+00
 -0.5361600E+01 -0.5787200E+01  0.3371400E+00  -0.6483860E+00  0.1337683E-16  0.7613118E+00
  0.5206788E+00 -0.5787200E+01  0.5346897E+01  -0.6483860E+00  0.1337683E-16  0.7613118E+00
           6
  0.5361600E+01  0.5787200E+01 -0.3371400E+00   0.8282774E-16  0.1000000E+01  0.1322663E-15
 -0.5206788E+00  0.5787200E+01 -0.5346897E+01   0.8282774E-16  0.1000000E+01  0.1322663E-15
 -0.5361600E+01  0.5787200E+01 -0.3371400E+00   0.8282774E-16  0.1000000E+01  0.1322663E-15
 -0.5361600E+01  0.5787200E+01  0.3371400E+00   0.8282774E-16  0.1000000E+01  0.1322663E-15
  0.5206788E+00  0.5787200E+01  0.5346897E+01   0.8282774E-16  0.1000000E+01  0.1322663E-15
  0.5361600E+01  0.5787200E+01  0.3371400E+00   0.8282774E-16  0.1000000E+01  0.1322663E-15
           4
  0.5361600E+01  0.5787200E+01  0.3371400E+00   0.1000000E+01  0.0000000E+00  0.0000000E+00
  0.5361600E+01 -0.5787200E+01  0.3371400E+00   0.1000000E+01  0.0000000E+00  0.0000000E+00
  0.5361600E+01 -0.5787200E+01 -0.3371400E+00   0.1000000E+01  0.0000000E+00  0.0000000E+00
  0.5361600E+01  0.5787200E+01 -0.3371400E+00   0.1000000E+01  0.0000000E+00  0.0000000E+00
           4
  0.5206788E+00 -0.5787200E+01  0.5346897E+01   0.7191207E+00  0.1237485E-15  0.6948852E+00
  0.5361600E+01 -0.5787200E+01  0.3371400E+00   0.7191207E+00  0.1237485E-15  0.6948852E+00
  0.5361600E+01  0.5787200E+01  0.3371400E+00   0.7191207E+00  0.1237485E-15  0.6948852E+00
  0.5206788E+00  0.5787200E+01  0.5346897E+01   0.7191207E+00  0.1237485E-15  0.6948852E+00
 WIGNER-SEITZ-PRIMCELL_END
 WIGNER-SEITZ-CONVCELL
           4
 -0.5361600E+01  0.5787200E+01 -0.3371400E+00  -0.7191207E+00 -0.3848981E-16 -0.6948852E+00
 -0.5206788E+00  0.5787200E+01 -0.5346897E+01  -0.7191207E+00 -0.3848981E-16 -0.6948852E+00
 -0.5206788E+00 -0.5787200E+01 -0.5346897E+01  -0.7191207E+00 -0.3848981E-16 -0.6948852E+00
 -0.5361600E+01 -0.5787200E+01 -0.3371400E+00  -0.7191207E+00 -0.3848981E-16 -0.6948852E+00
           4
 -0.5361600E+01  0.5787200E+01  0.3371400E+00  -0.1000000E+01 -0.0000000E+00 -0.0000000E+00
 -0.5361600E+01  0.5787200E+01 -0.3371400E+00  -0.1000000E+01 -0.0000000E+00 -0.0000000E+00
 -0.5361600E+01 -0.5787200E+01 -0.3371400E+00  -0.1000000E+01 -0.0000000E+00 -0.0000000E+00
 -0.5361600E+01 -0.5787200E+01  0.3371400E+00  -0.1000000E+01 -0.0000000E+00 -0.0000000E+00
           6
  0.5361600E+01 -0.5787200E+01  0.3371400E+00  -0.1101338E-31 -0.1000000E+01 -0.2645325E-15
  0.5206788E+00 -0.5787200E+01  0.5346897E+01  -0.1101338E-31 -0.1000000E+01 -0.2645325E-15
 -0.5361600E+01 -0.5787200E+01  0.3371400E+00  -0.1101338E-31 -0.1000000E+01 -0.2645325E-15
 -0.5361600E+01 -0.5787200E+01 -0.3371400E+00  -0.1101338E-31 -0.1000000E+01 -0.2645325E-15
 -0.5206788E+00 -0.5787200E+01 -0.5346897E+01  -0.1101338E-31 -0.1000000E+01 -0.2645325E-15
  0.5361600E+01 -0.5787200E+01 -0.3371400E+00  -0.1101338E-31 -0.1000000E+01 -0.2645325E-15
           4
  0.5361600E+01  0.5787200E+01 -0.3371400E+00   0.6483860E+00  0.0000000E+00 -0.7613118E+00
  0.5361600E+01 -0.5787200E+01 -0.3371400E+00   0.6483860E+00  0.0000000E+00 -0.7613118E+00
 -0.5206788E+00 -0.5787200E+01 -0.5346897E+01   0.6483860E+00  0.0000000E+00 -0.7613118E+00
 -0.5206788E+00  0.5787200E+01 -0.5346897E+01   0.6483860E+00  0.0000000E+00 -0.7613118E+00
           4
  0.5206788E+00  0.5787200E+01  0.5346897E+01  -0.6483860E+00  0.1337683E-16  0.7613118E+00
 -0.5361600E+01  0.5787200E+01  0.3371400E+00  -0.6483860E+00  0.1337683E-16  0.7613118E+00
 -0.5361600E+01 -0.5787200E+01  0.3371400E+00  -0.6483860E+00  0.1337683E-16  0.7613118E+00
  0.5206788E+00 -0.5787200E+01  0.5346897E+01  -0.6483860E+00  0.1337683E-16  0.7613118E+00
           6
  0.5361600E+01  0.5787200E+01 -0.3371400E+00   0.8282774E-16  0.1000000E+01  0.1322663E-15
 -0.5206788E+00  0.5787200E+01 -0.5346897E+01   0.8282774E-16  0.1000000E+01  0.1322663E-15
 -0.5361600E+01  0.5787200E+01 -0.3371400E+00   0.8282774E-16  0.1000000E+01  0.1322663E-15
 -0.5361600E+01  0.5787200E+01  0.3371400E+00   0.8282774E-16  0.1000000E+01  0.1322663E-15
  0.5206788E+00  0.5787200E+01  0.5346897E+01   0.8282774E-16  0.1000000E+01  0.1322663E-15
  0.5361600E+01  0.5787200E+01  0.3371400E+00   0.8282774E-16  0.1000000E+01  0.1322663E-15
           4
  0.5361600E+01  0.5787200E+01  0.3371400E+00   0.1000000E+01  0.0000000E+00  0.0000000E+00
  0.5361600E+01 -0.5787200E+01  0.3371400E+00   0.1000000E+01  0.0000000E+00  0.0000000E+00
  0.5361600E+01 -0.5787200E+01 -0.3371400E+00   0.1000000E+01  0.0000000E+00  0.0000000E+00
  0.5361600E+01  0.5787200E+01 -0.3371400E+00   0.1000000E+01  0.0000000E+00  0.0000000E+00
           4
  0.5206788E+00 -0.5787200E+01  0.5346897E+01   0.7191207E+00  0.1237485E-15  0.6948852E+00
  0.5361600E+01 -0.5787200E+01  0.3371400E+00   0.7191207E+00  0.1237485E-15  0.6948852E+00
  0.5361600E+01  0.5787200E+01  0.3371400E+00   0.7191207E+00  0.1237485E-15  0.6948852E+00
  0.5206788E+00  0.5787200E+01  0.5346897E+01   0.7191207E+00  0.1237485E-15  0.6948852E+00
 WIGNER-SEITZ-CONVCELL_END
 BRILLOUIN-ZONE-PRIMCELL
           6
 -0.8772442E-01 -0.4319878E-01  0.8542570E-02   0.6272365E-15 -0.1000000E+01  0.5585342E-15
 -0.5531322E-02 -0.4319878E-01 -0.8796564E-01   0.6272365E-15 -0.1000000E+01  0.5585342E-15
  0.5531322E-02 -0.4319878E-01 -0.8796564E-01   0.6272365E-15 -0.1000000E+01  0.5585342E-15
  0.8772442E-01 -0.4319878E-01 -0.8542570E-02   0.6272365E-15 -0.1000000E+01  0.5585342E-15
  0.5531322E-02 -0.4319878E-01  0.8796564E-01   0.6272365E-15 -0.1000000E+01  0.5585342E-15
 -0.5531322E-02 -0.4319878E-01  0.8796564E-01   0.6272365E-15 -0.1000000E+01  0.5585342E-15
           4
  0.5531322E-02  0.4319878E-01  0.8796564E-01   0.7613118E+00 -0.1880878E-15  0.6483860E+00
  0.5531322E-02 -0.4319878E-01  0.8796564E-01   0.7613118E+00 -0.1880878E-15  0.6483860E+00
  0.8772442E-01 -0.4319878E-01 -0.8542570E-02   0.7613118E+00 -0.1880878E-15  0.6483860E+00
  0.8772442E-01  0.4319878E-01 -0.8542570E-02   0.7613118E+00 -0.1880878E-15  0.6483860E+00
           4
 -0.5531322E-02 -0.4319878E-01  0.8796564E-01   0.9074858E-15 -0.2106256E-16  0.1000000E+01
  0.5531322E-02 -0.4319878E-01  0.8796564E-01   0.9074858E-15 -0.2106256E-16  0.1000000E+01
  0.5531322E-02  0.4319878E-01  0.8796564E-01   0.9074858E-15 -0.2106256E-16  0.1000000E+01
 -0.5531322E-02  0.4319878E-01  0.8796564E-01   0.9074858E-15 -0.2106256E-16  0.1000000E+01
           4
  0.8772442E-01  0.4319878E-01 -0.8542570E-02   0.6948852E+00 -0.1756690E-15 -0.7191207E+00
  0.8772442E-01 -0.4319878E-01 -0.8542570E-02   0.6948852E+00 -0.1756690E-15 -0.7191207E+00
  0.5531322E-02 -0.4319878E-01 -0.8796564E-01   0.6948852E+00 -0.1756690E-15 -0.7191207E+00
  0.5531322E-02  0.4319878E-01 -0.8796564E-01   0.6948852E+00 -0.1756690E-15 -0.7191207E+00
           4
 -0.5531322E-02  0.4319878E-01  0.8796564E-01  -0.6948852E+00  0.3578819E-16  0.7191207E+00
 -0.8772442E-01  0.4319878E-01  0.8542570E-02  -0.6948852E+00  0.3578819E-16  0.7191207E+00
 -0.8772442E-01 -0.4319878E-01  0.8542570E-02  -0.6948852E+00  0.3578819E-16  0.7191207E+00
 -0.5531322E-02 -0.4319878E-01  0.8796564E-01  -0.6948852E+00  0.3578819E-16  0.7191207E+00
           4
 -0.5531322E-02 -0.4319878E-01 -0.8796564E-01  -0.2453592E-14 -0.1134357E-15 -0.1000000E+01
 -0.5531322E-02  0.4319878E-01 -0.8796564E-01  -0.2453592E-14 -0.1134357E-15 -0.1000000E+01
  0.5531322E-02  0.4319878E-01 -0.8796564E-01  -0.2453592E-14 -0.1134357E-15 -0.1000000E+01
  0.5531322E-02 -0.4319878E-01 -0.8796564E-01  -0.2453592E-14 -0.1134357E-15 -0.1000000E+01
           4
 -0.5531322E-02  0.4319878E-01 -0.8796564E-01  -0.7613118E+00  0.3167794E-15 -0.6483860E+00
 -0.5531322E-02 -0.4319878E-01 -0.8796564E-01  -0.7613118E+00  0.3167794E-15 -0.6483860E+00
 -0.8772442E-01 -0.4319878E-01  0.8542570E-02  -0.7613118E+00  0.3167794E-15 -0.6483860E+00
 -0.8772442E-01  0.4319878E-01  0.8542570E-02  -0.7613118E+00  0.3167794E-15 -0.6483860E+00
           6
 -0.5531322E-02  0.4319878E-01  0.8796564E-01   0.0000000E+00  0.1000000E+01  0.3046550E-15
  0.5531322E-02  0.4319878E-01  0.8796564E-01   0.0000000E+00  0.1000000E+01  0.3046550E-15
  0.8772442E-01  0.4319878E-01 -0.8542570E-02   0.0000000E+00  0.1000000E+01  0.3046550E-15
  0.5531322E-02  0.4319878E-01 -0.8796564E-01   0.0000000E+00  0.1000000E+01  0.3046550E-15
 -0.5531322E-02  0.4319878E-01 -0.8796564E-01   0.0000000E+00  0.1000000E+01  0.3046550E-15
 -0.8772442E-01  0.4319878E-01  0.8542570E-02   0.0000000E+00  0.1000000E+01  0.3046550E-15
 BRILLOUIN-ZONE-PRIMCELL_END
 BRILLOUIN-ZONE-CONVCELL
           6
 -0.8772442E-01 -0.4319878E-01  0.8542570E-02   0.6272365E-15 -0.1000000E+01  0.5585342E-15
 -0.5531322E-02 -0.4319878E-01 -0.8796564E-01   0.6272365E-15 -0.1000000E+01  0.5585342E-15
  0.5531322E-02 -0.4319878E-01 -0.8796564E-01   0.6272365E-15 -0.1000000E+01  0.5585342E-15
  0.8772442E-01 -0.4319878E-01 -0.8542570E-02   0.6272365E-15 -0.1000000E+01  0.5585342E-15
  0.5531322E-02 -0.4319878E-01  0.8796564E-01   0.6272365E-15 -0.1000000E+01  0.5585342E-15
 -0.5531322E-02 -0.4319878E-01  0.8796564E-01   0.6272365E-15 -0.1000000E+01  0.5585342E-15
           4
  0.5531322E-02  0.4319878E-01  0.8796564E-01   0.7613118E+00 -0.1880878E-15  0.6483860E+00
  0.5531322E-02 -0.4319878E-01  0.8796564E-01   0.7613118E+00 -0.1880878E-15  0.6483860E+00
  0.8772442E-01 -0.4319878E-01 -0.8542570E-02   0.7613118E+00 -0.1880878E-15  0.6483860E+00
  0.8772442E-01  0.4319878E-01 -0.8542570E-02   0.7613118E+00 -0.1880878E-15  0.6483860E+00
           4
 -0.5531322E-02 -0.4319878E-01  0.8796564E-01   0.9074858E-15 -0.2106256E-16  0.1000000E+01
  0.5531322E-02 -0.4319878E-01  0.8796564E-01   0.9074858E-15 -0.2106256E-16  0.1000000E+01
  0.5531322E-02  0.4319878E-01  0.8796564E-01   0.9074858E-15 -0.2106256E-16  0.1000000E+01
 -0.5531322E-02  0.4319878E-01  0.8796564E-01   0.9074858E-15 -0.2106256E-16  0.1000000E+01
           4
  0.8772442E-01  0.4319878E-01 -0.8542570E-02   0.6948852E+00 -0.1756690E-15 -0.7191207E+00
  0.8772442E-01 -0.4319878E-01 -0.8542570E-02   0.6948852E+00 -0.1756690E-15 -0.7191207E+00
  0.5531322E-02 -0.4319878E-01 -0.8796564E-01   0.6948852E+00 -0.1756690E-15 -0.7191207E+00
  0.5531322E-02  0.4319878E-01 -0.8796564E-01   0.6948852E+00 -0.1756690E-15 -0.7191207E+00
           4
 -0.5531322E-02  0.4319878E-01  0.8796564E-01  -0.6948852E+00  0.3578819E-16  0.7191207E+00
 -0.8772442E-01  0.4319878E-01  0.8542570E-02  -0.6948852E+00  0.3578819E-16  0.7191207E+00
 -0.8772442E-01 -0.4319878E-01  0.8542570E-02  -0.6948852E+00  0.3578819E-16  0.7191207E+00
 -0.5531322E-02 -0.4319878E-01  0.8796564E-01  -0.6948852E+00  0.3578819E-16  0.7191207E+00
           4
 -0.5531322E-02 -0.4319878E-01 -0.8796564E-01  -0.2453592E-14 -0.1134357E-15 -0.1000000E+01
 -0.5531322E-02  0.4319878E-01 -0.8796564E-01  -0.2453592E-14 -0.1134357E-15 -0.1000000E+01
  0.5531322E-02  0.4319878E-01 -0.8796564E-01  -0.2453592E-14 -0.1134357E-15 -0.1000000E+01
  0.5531322E-02 -0.4319878E-01 -0.8796564E-01  -0.2453592E-14 -0.1134357E-15 -0.1000000E+01
           4
 -0.5531322E-02  0.4319878E-01 -0.8796564E-01  -0.7613118E+00  0.3167794E-15 -0.6483860E+00
 -0.5531322E-02 -0.4319878E-01 -0.8796564E-01  -0.7613118E+00  0.3167794E-15 -0.6483860E+00
 -0.8772442E-01 -0.4319878E-01  0.8542570E-02  -0.7613118E+00  0.3167794E-15 -0.6483860E+00
 -0.8772442E-01  0.4319878E-01  0.8542570E-02  -0.7613118E+00  0.3167794E-15 -0.6483860E+00
           6
 -0.5531322E-02  0.4319878E-01  0.8796564E-01   0.0000000E+00  0.1000000E+01  0.3046550E-15
  0.5531322E-02  0.4319878E-01  0.8796564E-01   0.0000000E+00  0.1000000E+01  0.3046550E-15
  0.8772442E-01  0.4319878E-01 -0.8542570E-02   0.0000000E+00  0.1000000E+01  0.3046550E-15
  0.5531322E-02  0.4319878E-01 -0.8796564E-01   0.0000000E+00  0.1000000E+01  0.3046550E-15
 -0.5531322E-02  0.4319878E-01 -0.8796564E-01   0.0000000E+00  0.1000000E+01  0.3046550E-15
 -0.8772442E-01  0.4319878E-01  0.8542570E-02   0.0000000E+00  0.1000000E+01  0.3046550E-15
 BRILLOUIN-ZONE-CONVCELL_END
 ATOMS
    8    8.5942140000    7.5313380000    1.1540840000
    8    9.2081720000    5.4941250000    1.4883040000
    7    8.3604780000    6.3215780000    1.1427160000
    6   -0.2542040000    4.9408870000    5.5984210000
    6    0.0073740000    6.3286380000    5.6234310000
    6    6.0986700000    6.7696440000    0.3412690000
    1    6.2912500000    7.7004590000    0.3563880000
    6    7.0755310000    5.8483210000    0.7238030000
    6    6.8389600000    4.4779100000    0.6908360000
    1    7.5192430000    3.8635400000    0.9378640000
    6    5.5979770000    4.0299800000    0.2918180000
    1    5.4211900000    3.0973140000    0.2699910000
 FRAMES
1      0.0000000000    0.0000000000    0.0000000000     10.7232000000    0.0000000000    0.0000000000
1      0.0000000000    0.0000000000    0.0000000000      0.0000000000   11.5744000000    0.0000000000
1      0.0000000000    0.0000000000    0.0000000000     -4.8409211990    0.0000000000    5.6840373400
1     -4.8409211990    0.0000000000    5.6840373400      5.8822788010    0.0000000000    5.6840373400
1     -4.8409211990    0.0000000000    5.6840373400     -4.8409211990   11.5744000000    5.6840373400
1      0.0000000000   11.5744000000    0.0000000000     10.7232000000   11.5744000000    0.0000000000
1      0.0000000000   11.5744000000    0.0000000000     -4.8409211990   11.5744000000    5.6840373400
1     -4.8409211990   11.5744000000    5.6840373400      5.8822788010   11.5744000000    5.6840373400
1     10.7232000000    0.0000000000    0.0000000000     10.7232000000   11.5744000000    0.0000000000
1     10.7232000000    0.0000000000    0.0000000000      5.8822788010    0.0000000000    5.6840373400
1      5.8822788010    0.0000000000    5.6840373400      5.8822788010   11.5744000000    5.6840373400
1     10.7232000000   11.5744000000    0.0000000000      5.8822788010   11.5744000000    5.6840373400
