 INFO
nunit      1    1    1
unit   cell
celltype   primcell
shape   parapipedal
 END_INFO
 DIM-GROUP
           3           1
 PRIMVEC
   10.7232000000    0.0000000000    0.0000000000
    0.0000000000   11.5744000000    0.0000000000
   -4.8409211990    0.0000000000    5.6840373400
 CONVVEC
   10.7232000000    0.0000000000    0.0000000000
    0.0000000000   11.5744000000    0.0000000000
   -4.8409211990    0.0000000000    5.6840373400
 PRIMCOORD
          19           1
  8      6.1737440000     4.0430780000     3.9960950000
  8      6.7877020000     6.0802910000     4.3303160000
  7      0.9640220000     7.1087930000     2.3471600000
  1      0.8209230000     7.9770880000     2.3185130000
  1      0.3277970000     6.5499620000     2.1093410000
  7      5.9400090000     5.2528380000     3.9847270000
  6      2.1662650000     6.6335290000     2.7564100000
  6      2.4278440000     5.2457780000     2.7814200000
  6      3.6782010000     4.8047720000     3.1832800000
  1      3.8707810000     3.8739570000     3.1983990000
  6      4.6550620000     5.7260950000     3.5658150000
  6      4.4184910000     7.0965060000     3.5328470000
  1      5.0987740000     7.7108760000     3.7798750000
  6      3.1775080000     7.5444360000     3.1338290000
  1      3.0007200000     8.4771020000     3.1120020000
  6      1.3498300000     4.2781360000     2.3716020000
  1      1.6659380000     3.3600530000     2.5060850000
  1      1.1321320000     4.4133250000     1.4255530000
  1      0.5496080000     4.4318440000     2.9153350000
 CONVCOORD
          19           1
  8      6.1737440000     4.0430780000     3.9960950000
  8      6.7877020000     6.0802910000     4.3303160000
  7      0.9640220000     7.1087930000     2.3471600000
  1      0.8209230000     7.9770880000     2.3185130000
  1      0.3277970000     6.5499620000     2.1093410000
  7      5.9400090000     5.2528380000     3.9847270000
  6      2.1662650000     6.6335290000     2.7564100000
  6      2.4278440000     5.2457780000     2.7814200000
  6      3.6782010000     4.8047720000     3.1832800000
  1      3.8707810000     3.8739570000     3.1983990000
  6      4.6550620000     5.7260950000     3.5658150000
  6      4.4184910000     7.0965060000     3.5328470000
  1      5.0987740000     7.7108760000     3.7798750000
  6      3.1775080000     7.5444360000     3.1338290000
  1      3.0007200000     8.4771020000     3.1120020000
  6      1.3498300000     4.2781360000     2.3716020000
  1      1.6659380000     3.3600530000     2.5060850000
  1      1.1321320000     4.4133250000     1.4255530000
  1      0.5496080000     4.4318440000     2.9153350000
 RECIP-PRIMVEC
    0.0932557446   -0.0000000000    0.0794230727

    0.0000000000    0.0863975670   -0.0000000000

    0.0000000000    0.0000000000    0.1759312862

 RECIP-CONVVEC
    0.0932557446   -0.0000000000    0.0794230727

    0.0000000000    0.0863975670   -0.0000000000

    0.0000000000    0.0000000000    0.1759312862

 WIGNER-SEITZ-PRIMCELL
           4
 -0.5361600E+01  0.5787200E+01 -0.3371400E+00  -0.7191207E+00 -0.3848981E-16 -0.6948852E+00
 -0.5206788E+00  0.5787200E+01 -0.5346897E+01  -0.7191207E+00 -0.3848981E-16 -0.6948852E+00
 -0.5206788E+00 -0.5787200E+01 -0.5346897E+01  -0.7191207E+00 -0.3848981E-16 -0.6948852E+00
 -0.5361600E+01 -0.5787200E+01 -0.3371400E+00  -0.7191207E+00 -0.3848981E-16 -0.6948852E+00
           4
 -0.5361600E+01  0.5787200E+01  0.3371400E+00  -0.1000000E+01 -0.0000000E+00 -0.0000000E+00
 -0.5361600E+01  0.5787200E+01 -0.3371400E+00  -0.1000000E+01 -0.0000000E+00 -0.0000000E+00
 -0.5361600E+01 -0.5787200E+01 -0.3371400E+00  -0.1000000E+01 -0.0000000E+00 -0.0000000E+00
 -0.5361600E+01 -0.5787200E+01  0.3371400E+00  -0.1000000E+01 -0.0000000E+00 -0.0000000E+00
           6
  0.5361600E+01 -0.5787200E+01  0.3371400E+00  -0.1101338E-31 -0.1000000E+01 -0.2645325E-15
  0.5206788E+00 -0.5787200E+01  0.5346897E+01  -0.1101338E-31 -0.1000000E+01 -0.2645325E-15
 -0.5361600E+01 -0.5787200E+01  0.3371400E+00  -0.1101338E-31 -0.1000000E+01 -0.2645325E-15
 -0.5361600E+01 -0.5787200E+01 -0.3371400E+00  -0.1101338E-31 -0.1000000E+01 -0.2645325E-15
 -0.5206788E+00 -0.5787200E+01 -0.5346897E+01  -0.1101338E-31 -0.1000000E+01 -0.2645325E-15
  0.5361600E+01 -0.5787200E+01 -0.3371400E+00  -0.1101338E-31 -0.1000000E+01 -0.2645325E-15
           4
  0.5361600E+01  0.5787200E+01 -0.3371400E+00   0.6483860E+00  0.0000000E+00 -0.7613118E+00
  0.5361600E+01 -0.5787200E+01 -0.3371400E+00   0.6483860E+00  0.0000000E+00 -0.7613118E+00
 -0.5206788E+00 -0.5787200E+01 -0.5346897E+01   0.6483860E+00  0.0000000E+00 -0.7613118E+00
 -0.5206788E+00  0.5787200E+01 -0.5346897E+01   0.6483860E+00  0.0000000E+00 -0.7613118E+00
           4
  0.5206788E+00  0.5787200E+01  0.5346897E+01  -0.6483860E+00  0.1337683E-16  0.7613118E+00
 -0.5361600E+01  0.5787200E+01  0.3371400E+00  -0.6483860E+00  0.1337683E-16  0.7613118E+00
 -0.5361600E+01 -0.5787200E+01  0.3371400E+00  -0.6483860E+00  0.1337683E-16  0.7613118E+00
  0.5206788E+00 -0.5787200E+01  0.5346897E+01  -0.6483860E+00  0.1337683E-16  0.7613118E+00
           6
  0.5361600E+01  0.5787200E+01 -0.3371400E+00   0.8282774E-16  0.1000000E+01  0.1322663E-15
 -0.5206788E+00  0.5787200E+01 -0.5346897E+01   0.8282774E-16  0.1000000E+01  0.1322663E-15
 -0.5361600E+01  0.5787200E+01 -0.3371400E+00   0.8282774E-16  0.1000000E+01  0.1322663E-15
 -0.5361600E+01  0.5787200E+01  0.3371400E+00   0.8282774E-16  0.1000000E+01  0.1322663E-15
  0.5206788E+00  0.5787200E+01  0.5346897E+01   0.8282774E-16  0.1000000E+01  0.1322663E-15
  0.5361600E+01  0.5787200E+01  0.3371400E+00   0.8282774E-16  0.1000000E+01  0.1322663E-15
           4
  0.5361600E+01  0.5787200E+01  0.3371400E+00   0.1000000E+01  0.0000000E+00  0.0000000E+00
  0.5361600E+01 -0.5787200E+01  0.3371400E+00   0.1000000E+01  0.0000000E+00  0.0000000E+00
  0.5361600E+01 -0.5787200E+01 -0.3371400E+00   0.1000000E+01  0.0000000E+00  0.0000000E+00
  0.5361600E+01  0.5787200E+01 -0.3371400E+00   0.1000000E+01  0.0000000E+00  0.0000000E+00
           4
  0.5206788E+00 -0.5787200E+01  0.5346897E+01   0.7191207E+00  0.1237485E-15  0.6948852E+00
  0.5361600E+01 -0.5787200E+01  0.3371400E+00   0.7191207E+00  0.1237485E-15  0.6948852E+00
  0.5361600E+01  0.5787200E+01  0.3371400E+00   0.7191207E+00  0.1237485E-15  0.6948852E+00
  0.5206788E+00  0.5787200E+01  0.5346897E+01   0.7191207E+00  0.1237485E-15  0.6948852E+00
 WIGNER-SEITZ-PRIMCELL_END
 WIGNER-SEITZ-CONVCELL
           4
 -0.5361600E+01  0.5787200E+01 -0.3371400E+00  -0.7191207E+00 -0.3848981E-16 -0.6948852E+00
 -0.5206788E+00  0.5787200E+01 -0.5346897E+01  -0.7191207E+00 -0.3848981E-16 -0.6948852E+00
 -0.5206788E+00 -0.5787200E+01 -0.5346897E+01  -0.7191207E+00 -0.3848981E-16 -0.6948852E+00
 -0.5361600E+01 -0.5787200E+01 -0.3371400E+00  -0.7191207E+00 -0.3848981E-16 -0.6948852E+00
           4
 -0.5361600E+01  0.5787200E+01  0.3371400E+00  -0.1000000E+01 -0.0000000E+00 -0.0000000E+00
 -0.5361600E+01  0.5787200E+01 -0.3371400E+00  -0.1000000E+01 -0.0000000E+00 -0.0000000E+00
 -0.5361600E+01 -0.5787200E+01 -0.3371400E+00  -0.1000000E+01 -0.0000000E+00 -0.0000000E+00
 -0.5361600E+01 -0.5787200E+01  0.3371400E+00  -0.1000000E+01 -0.0000000E+00 -0.0000000E+00
           6
  0.5361600E+01 -0.5787200E+01  0.3371400E+00  -0.1101338E-31 -0.1000000E+01 -0.2645325E-15
  0.5206788E+00 -0.5787200E+01  0.5346897E+01  -0.1101338E-31 -0.1000000E+01 -0.2645325E-15
 -0.5361600E+01 -0.5787200E+01  0.3371400E+00  -0.1101338E-31 -0.1000000E+01 -0.2645325E-15
 -0.5361600E+01 -0.5787200E+01 -0.3371400E+00  -0.1101338E-31 -0.1000000E+01 -0.2645325E-15
 -0.5206788E+00 -0.5787200E+01 -0.5346897E+01  -0.1101338E-31 -0.1000000E+01 -0.2645325E-15
  0.5361600E+01 -0.5787200E+01 -0.3371400E+00  -0.1101338E-31 -0.1000000E+01 -0.2645325E-15
           4
  0.5361600E+01  0.5787200E+01 -0.3371400E+00   0.6483860E+00  0.0000000E+00 -0.7613118E+00
  0.5361600E+01 -0.5787200E+01 -0.3371400E+00   0.6483860E+00  0.0000000E+00 -0.7613118E+00
 -0.5206788E+00 -0.5787200E+01 -0.5346897E+01   0.6483860E+00  0.0000000E+00 -0.7613118E+00
 -0.5206788E+00  0.5787200E+01 -0.5346897E+01   0.6483860E+00  0.0000000E+00 -0.7613118E+00
           4
  0.5206788E+00  0.5787200E+01  0.5346897E+01  -0.6483860E+00  0.1337683E-16  0.7613118E+00
 -0.5361600E+01  0.5787200E+01  0.3371400E+00  -0.6483860E+00  0.1337683E-16  0.7613118E+00
 -0.5361600E+01 -0.5787200E+01  0.3371400E+00  -0.6483860E+00  0.1337683E-16  0.7613118E+00
  0.5206788E+00 -0.5787200E+01  0.5346897E+01  -0.6483860E+00  0.1337683E-16  0.7613118E+00
           6
  0.5361600E+01  0.5787200E+01 -0.3371400E+00   0.8282774E-16  0.1000000E+01  0.1322663E-15
 -0.5206788E+00  0.5787200E+01 -0.5346897E+01   0.8282774E-16  0.1000000E+01  0.1322663E-15
 -0.5361600E+01  0.5787200E+01 -0.3371400E+00   0.8282774E-16  0.1000000E+01  0.1322663E-15
 -0.5361600E+01  0.5787200E+01  0.3371400E+00   0.8282774E-16  0.1000000E+01  0.1322663E-15
  0.5206788E+00  0.5787200E+01  0.5346897E+01   0.8282774E-16  0.1000000E+01  0.1322663E-15
  0.5361600E+01  0.5787200E+01  0.3371400E+00   0.8282774E-16  0.1000000E+01  0.1322663E-15
           4
  0.5361600E+01  0.5787200E+01  0.3371400E+00   0.1000000E+01  0.0000000E+00  0.0000000E+00
  0.5361600E+01 -0.5787200E+01  0.3371400E+00   0.1000000E+01  0.0000000E+00  0.0000000E+00
  0.5361600E+01 -0.5787200E+01 -0.3371400E+00   0.1000000E+01  0.0000000E+00  0.0000000E+00
  0.5361600E+01  0.5787200E+01 -0.3371400E+00   0.1000000E+01  0.0000000E+00  0.0000000E+00
           4
  0.5206788E+00 -0.5787200E+01  0.5346897E+01   0.7191207E+00  0.1237485E-15  0.6948852E+00
  0.5361600E+01 -0.5787200E+01  0.3371400E+00   0.7191207E+00  0.1237485E-15  0.6948852E+00
  0.5361600E+01  0.5787200E+01  0.3371400E+00   0.7191207E+00  0.1237485E-15  0.6948852E+00
  0.5206788E+00  0.5787200E+01  0.5346897E+01   0.7191207E+00  0.1237485E-15  0.6948852E+00
 WIGNER-SEITZ-CONVCELL_END
 BRILLOUIN-ZONE-PRIMCELL
           6
 -0.8772442E-01 -0.4319878E-01  0.8542570E-02   0.6272365E-15 -0.1000000E+01  0.5585342E-15
 -0.5531322E-02 -0.4319878E-01 -0.8796564E-01   0.6272365E-15 -0.1000000E+01  0.5585342E-15
  0.5531322E-02 -0.4319878E-01 -0.8796564E-01   0.6272365E-15 -0.1000000E+01  0.5585342E-15
  0.8772442E-01 -0.4319878E-01 -0.8542570E-02   0.6272365E-15 -0.1000000E+01  0.5585342E-15
  0.5531322E-02 -0.4319878E-01  0.8796564E-01   0.6272365E-15 -0.1000000E+01  0.5585342E-15
 -0.5531322E-02 -0.4319878E-01  0.8796564E-01   0.6272365E-15 -0.1000000E+01  0.5585342E-15
           4
  0.5531322E-02  0.4319878E-01  0.8796564E-01   0.7613118E+00 -0.1880878E-15  0.6483860E+00
  0.5531322E-02 -0.4319878E-01  0.8796564E-01   0.7613118E+00 -0.1880878E-15  0.6483860E+00
  0.8772442E-01 -0.4319878E-01 -0.8542570E-02   0.7613118E+00 -0.1880878E-15  0.6483860E+00
  0.8772442E-01  0.4319878E-01 -0.8542570E-02   0.7613118E+00 -0.1880878E-15  0.6483860E+00
           4
 -0.5531322E-02 -0.4319878E-01  0.8796564E-01   0.9074858E-15 -0.2106256E-16  0.1000000E+01
  0.5531322E-02 -0.4319878E-01  0.8796564E-01   0.9074858E-15 -0.2106256E-16  0.1000000E+01
  0.5531322E-02  0.4319878E-01  0.8796564E-01   0.9074858E-15 -0.2106256E-16  0.1000000E+01
 -0.5531322E-02  0.4319878E-01  0.8796564E-01   0.9074858E-15 -0.2106256E-16  0.1000000E+01
           4
  0.8772442E-01  0.4319878E-01 -0.8542570E-02   0.6948852E+00 -0.1756690E-15 -0.7191207E+00
  0.8772442E-01 -0.4319878E-01 -0.8542570E-02   0.6948852E+00 -0.1756690E-15 -0.7191207E+00
  0.5531322E-02 -0.4319878E-01 -0.8796564E-01   0.6948852E+00 -0.1756690E-15 -0.7191207E+00
  0.5531322E-02  0.4319878E-01 -0.8796564E-01   0.6948852E+00 -0.1756690E-15 -0.7191207E+00
           4
 -0.5531322E-02  0.4319878E-01  0.8796564E-01  -0.6948852E+00  0.3578819E-16  0.7191207E+00
 -0.8772442E-01  0.4319878E-01  0.8542570E-02  -0.6948852E+00  0.3578819E-16  0.7191207E+00
 -0.8772442E-01 -0.4319878E-01  0.8542570E-02  -0.6948852E+00  0.3578819E-16  0.7191207E+00
 -0.5531322E-02 -0.4319878E-01  0.8796564E-01  -0.6948852E+00  0.3578819E-16  0.7191207E+00
           4
 -0.5531322E-02 -0.4319878E-01 -0.8796564E-01  -0.2453592E-14 -0.1134357E-15 -0.1000000E+01
 -0.5531322E-02  0.4319878E-01 -0.8796564E-01  -0.2453592E-14 -0.1134357E-15 -0.1000000E+01
  0.5531322E-02  0.4319878E-01 -0.8796564E-01  -0.2453592E-14 -0.1134357E-15 -0.1000000E+01
  0.5531322E-02 -0.4319878E-01 -0.8796564E-01  -0.2453592E-14 -0.1134357E-15 -0.1000000E+01
           4
 -0.5531322E-02  0.4319878E-01 -0.8796564E-01  -0.7613118E+00  0.3167794E-15 -0.6483860E+00
 -0.5531322E-02 -0.4319878E-01 -0.8796564E-01  -0.7613118E+00  0.3167794E-15 -0.6483860E+00
 -0.8772442E-01 -0.4319878E-01  0.8542570E-02  -0.7613118E+00  0.3167794E-15 -0.6483860E+00
 -0.8772442E-01  0.4319878E-01  0.8542570E-02  -0.7613118E+00  0.3167794E-15 -0.6483860E+00
           6
 -0.5531322E-02  0.4319878E-01  0.8796564E-01   0.0000000E+00  0.1000000E+01  0.3046550E-15
  0.5531322E-02  0.4319878E-01  0.8796564E-01   0.0000000E+00  0.1000000E+01  0.3046550E-15
  0.8772442E-01  0.4319878E-01 -0.8542570E-02   0.0000000E+00  0.1000000E+01  0.3046550E-15
  0.5531322E-02  0.4319878E-01 -0.8796564E-01   0.0000000E+00  0.1000000E+01  0.3046550E-15
 -0.5531322E-02  0.4319878E-01 -0.8796564E-01   0.0000000E+00  0.1000000E+01  0.3046550E-15
 -0.8772442E-01  0.4319878E-01  0.8542570E-02   0.0000000E+00  0.1000000E+01  0.3046550E-15
 BRILLOUIN-ZONE-PRIMCELL_END
 BRILLOUIN-ZONE-CONVCELL
           6
 -0.8772442E-01 -0.4319878E-01  0.8542570E-02   0.6272365E-15 -0.1000000E+01  0.5585342E-15
 -0.5531322E-02 -0.4319878E-01 -0.8796564E-01   0.6272365E-15 -0.1000000E+01  0.5585342E-15
  0.5531322E-02 -0.4319878E-01 -0.8796564E-01   0.6272365E-15 -0.1000000E+01  0.5585342E-15
  0.8772442E-01 -0.4319878E-01 -0.8542570E-02   0.6272365E-15 -0.1000000E+01  0.5585342E-15
  0.5531322E-02 -0.4319878E-01  0.8796564E-01   0.6272365E-15 -0.1000000E+01  0.5585342E-15
 -0.5531322E-02 -0.4319878E-01  0.8796564E-01   0.6272365E-15 -0.1000000E+01  0.5585342E-15
           4
  0.5531322E-02  0.4319878E-01  0.8796564E-01   0.7613118E+00 -0.1880878E-15  0.6483860E+00
  0.5531322E-02 -0.4319878E-01  0.8796564E-01   0.7613118E+00 -0.1880878E-15  0.6483860E+00
  0.8772442E-01 -0.4319878E-01 -0.8542570E-02   0.7613118E+00 -0.1880878E-15  0.6483860E+00
  0.8772442E-01  0.4319878E-01 -0.8542570E-02   0.7613118E+00 -0.1880878E-15  0.6483860E+00
           4
 -0.5531322E-02 -0.4319878E-01  0.8796564E-01   0.9074858E-15 -0.2106256E-16  0.1000000E+01
  0.5531322E-02 -0.4319878E-01  0.8796564E-01   0.9074858E-15 -0.2106256E-16  0.1000000E+01
  0.5531322E-02  0.4319878E-01  0.8796564E-01   0.9074858E-15 -0.2106256E-16  0.1000000E+01
 -0.5531322E-02  0.4319878E-01  0.8796564E-01   0.9074858E-15 -0.2106256E-16  0.1000000E+01
           4
  0.8772442E-01  0.4319878E-01 -0.8542570E-02   0.6948852E+00 -0.1756690E-15 -0.7191207E+00
  0.8772442E-01 -0.4319878E-01 -0.8542570E-02   0.6948852E+00 -0.1756690E-15 -0.7191207E+00
  0.5531322E-02 -0.4319878E-01 -0.8796564E-01   0.6948852E+00 -0.1756690E-15 -0.7191207E+00
  0.5531322E-02  0.4319878E-01 -0.8796564E-01   0.6948852E+00 -0.1756690E-15 -0.7191207E+00
           4
 -0.5531322E-02  0.4319878E-01  0.8796564E-01  -0.6948852E+00  0.3578819E-16  0.7191207E+00
 -0.8772442E-01  0.4319878E-01  0.8542570E-02  -0.6948852E+00  0.3578819E-16  0.7191207E+00
 -0.8772442E-01 -0.4319878E-01  0.8542570E-02  -0.6948852E+00  0.3578819E-16  0.7191207E+00
 -0.5531322E-02 -0.4319878E-01  0.8796564E-01  -0.6948852E+00  0.3578819E-16  0.7191207E+00
           4
 -0.5531322E-02 -0.4319878E-01 -0.8796564E-01  -0.2453592E-14 -0.1134357E-15 -0.1000000E+01
 -0.5531322E-02  0.4319878E-01 -0.8796564E-01  -0.2453592E-14 -0.1134357E-15 -0.1000000E+01
  0.5531322E-02  0.4319878E-01 -0.8796564E-01  -0.2453592E-14 -0.1134357E-15 -0.1000000E+01
  0.5531322E-02 -0.4319878E-01 -0.8796564E-01  -0.2453592E-14 -0.1134357E-15 -0.1000000E+01
           4
 -0.5531322E-02  0.4319878E-01 -0.8796564E-01  -0.7613118E+00  0.3167794E-15 -0.6483860E+00
 -0.5531322E-02 -0.4319878E-01 -0.8796564E-01  -0.7613118E+00  0.3167794E-15 -0.6483860E+00
 -0.8772442E-01 -0.4319878E-01  0.8542570E-02  -0.7613118E+00  0.3167794E-15 -0.6483860E+00
 -0.8772442E-01  0.4319878E-01  0.8542570E-02  -0.7613118E+00  0.3167794E-15 -0.6483860E+00
           6
 -0.5531322E-02  0.4319878E-01  0.8796564E-01   0.0000000E+00  0.1000000E+01  0.3046550E-15
  0.5531322E-02  0.4319878E-01  0.8796564E-01   0.0000000E+00  0.1000000E+01  0.3046550E-15
  0.8772442E-01  0.4319878E-01 -0.8542570E-02   0.0000000E+00  0.1000000E+01  0.3046550E-15
  0.5531322E-02  0.4319878E-01 -0.8796564E-01   0.0000000E+00  0.1000000E+01  0.3046550E-15
 -0.5531322E-02  0.4319878E-01 -0.8796564E-01   0.0000000E+00  0.1000000E+01  0.3046550E-15
 -0.8772442E-01  0.4319878E-01  0.8542570E-02   0.0000000E+00  0.1000000E+01  0.3046550E-15
 BRILLOUIN-ZONE-CONVCELL_END
 ATOMS
    8    6.1737440000    4.0430780000    3.9960950000
    8    6.7877020000    6.0802910000    4.3303160000
    7    0.9640220000    7.1087930000    2.3471600000
    1    0.8209230000    7.9770880000    2.3185130000
    1    0.3277970000    6.5499620000    2.1093410000
    7    5.9400090000    5.2528380000    3.9847270000
    6    2.1662650000    6.6335290000    2.7564100000
    6    2.4278440000    5.2457780000    2.7814200000
    6    3.6782010000    4.8047720000    3.1832800000
    1    3.8707810000    3.8739570000    3.1983990000
    6    4.6550620000    5.7260950000    3.5658150000
    6    4.4184910000    7.0965060000    3.5328470000
    1    5.0987740000    7.7108760000    3.7798750000
    6    3.1775080000    7.5444360000    3.1338290000
    1    3.0007200000    8.4771020000    3.1120020000
    6    1.3498300000    4.2781360000    2.3716020000
    1    1.6659380000    3.3600530000    2.5060850000
    1    1.1321320000    4.4133250000    1.4255530000
    1    0.5496080000    4.4318440000    2.9153350000
 FRAMES
1      0.0000000000    0.0000000000    0.0000000000     10.7232000000    0.0000000000    0.0000000000
1      0.0000000000    0.0000000000    0.0000000000      0.0000000000   11.5744000000    0.0000000000
1      0.0000000000    0.0000000000    0.0000000000     -4.8409211990    0.0000000000    5.6840373400
1     -4.8409211990    0.0000000000    5.6840373400      5.8822788010    0.0000000000    5.6840373400
1     -4.8409211990    0.0000000000    5.6840373400     -4.8409211990   11.5744000000    5.6840373400
1      0.0000000000   11.5744000000    0.0000000000     10.7232000000   11.5744000000    0.0000000000
1      0.0000000000   11.5744000000    0.0000000000     -4.8409211990   11.5744000000    5.6840373400
1     -4.8409211990   11.5744000000    5.6840373400      5.8822788010   11.5744000000    5.6840373400
1     10.7232000000    0.0000000000    0.0000000000     10.7232000000   11.5744000000    0.0000000000
1     10.7232000000    0.0000000000    0.0000000000      5.8822788010    0.0000000000    5.6840373400
1      5.8822788010    0.0000000000    5.6840373400      5.8822788010   11.5744000000    5.6840373400
1     10.7232000000   11.5744000000    0.0000000000      5.8822788010   11.5744000000    5.6840373400
